CHEMBL174579|3D_washed_1|sdf|1|dock1
  -GOLD-   5102319433D 1   1.00000     0.00000

 27 29  0  0  0  0  0  0  0  0  1 V2000
   82.4941   55.8244   47.7613 Br  0  0  0  0  0  0  0  0  0  0  0  0
   83.8542   55.1139   46.6566 C   0  0  0  0  0  0  0  0  0  0  0  0
   84.2274   53.7865   46.7875 C   0  0  0  0  0  0  0  0  0  0  0  0
   85.2179   53.2648   45.9853 C   0  0  0  0  0  0  0  0  0  0  0  0
   85.8524   54.0754   45.0326 C   0  0  0  0  0  0  0  0  0  0  0  0
   85.4702   55.4102   44.9075 C   0  0  0  0  0  0  0  0  0  0  0  0
   84.4700   55.9194   45.7160 C   0  0  0  0  0  0  0  0  0  0  0  0
   86.2889   56.0732   43.8266 C   0  0  0  0  0  0  0  0  0  0  0  0
   87.2364   54.9964   43.2808 C   0  0  0  0  0  0  0  0  0  0  0  0
   86.9237   53.7504   44.0736 C   0  0  0  0  0  0  0  0  0  0  0  0
   87.5182   52.5548   43.9312 C   0  0  0  0  0  0  0  0  0  0  0  0
   87.2486   51.4768   44.8994 C   0  0  0  0  0  0  0  0  0  0  0  0
   86.4757   50.3750   44.6822 C   0  0  0  0  0  0  0  0  0  0  0  0
   86.4989   49.6468   45.8373 N   0  0  0  0  0  0  0  0  0  0  0  0
   87.2780   50.3154   46.7243 C   0  0  0  0  0  0  0  0  0  0  0  0
   87.7272   51.4014   46.1605 N   0  0  0  0  0  0  0  0  0  0  0  0
   83.7408   53.1595   47.5190 H   0  0  0  0  0  0  0  0  0  0  0  0
   85.5073   52.2295   46.0899 H   0  0  0  0  0  0  0  0  0  0  0  0
   84.1750   56.9540   45.6175 H   0  0  0  0  0  0  0  0  0  0  0  0
   85.6355   56.4347   43.0319 H   0  0  0  0  0  0  0  0  0  0  0  0
   86.8630   56.8993   44.2453 H   0  0  0  0  0  0  0  0  0  0  0  0
   87.0449   54.8272   42.2209 H   0  0  0  0  0  0  0  0  0  0  0  0
   88.2741   55.2921   43.4353 H   0  0  0  0  0  0  0  0  0  0  0  0
   88.1933   52.3818   43.1057 H   0  0  0  0  0  0  0  0  0  0  0  0
   85.9480   50.1270   43.7735 H   0  0  0  0  0  0  0  0  0  0  0  0
   87.4960   49.9973   47.7333 H   0  0  0  0  0  0  0  0  0  0  0  0
   86.0227   48.7712   46.0011 H   0  0  0  0  0  0  0  0  0  0  0  0
  1  2  1  0  0  0  0
  2  3  1  0  0  0  0
  2  7  2  0  0  0  0
  3  4  2  0  0  0  0
  3 17  1  0  0  0  0
  4  5  1  0  0  0  0
  4 18  1  0  0  0  0
  5  6  2  0  0  0  0
  5 10  1  0  0  0  0
  6  7  1  0  0  0  0
  6  8  1  0  0  0  0
  7 19  1  0  0  0  0
  8  9  1  0  0  0  0
  8 20  1  0  0  0  0
  8 21  1  0  0  0  0
  9 10  1  0  0  0  0
  9 22  1  0  0  0  0
  9 23  1  0  0  0  0
 10 11  2  0  0  0  0
 11 12  1  0  0  0  0
 11 24  1  0  0  0  0
 12 13  2  0  0  0  0
 12 16  1  0  0  0  0
 13 14  1  0  0  0  0
 13 25  1  0  0  0  0
 14 15  1  0  0  0  0
 14 27  1  0  0  0  0
 15 16  2  0  0  0  0
 15 26  1  0  0  0  0
M  END
> <Gold.Version>
5.8.1

> <Gold.Id.Protein>
unknown|old|pdb

> <Gold.Goldscore.Fitness>
48.3772

> <Gold.Goldscore.Internal.Vdw>
0.0287

> <Gold.Goldscore.Internal.Torsion>
-5.2781

> <Gold.Goldscore.External.Vdw>
35.1907

> <Gold.Goldscore.Internal.HBond>
0.0000

> <Gold.Goldscore.External.HBond>
0.0000

> <Gold.Goldscore.Internal.Correction>
-5.2394

> <Gold.Goldscore.Internal.Vdw.Weighted>
0.0287

> <Gold.Goldscore.Internal.Torsion.Weighted>
-5.2781

> <Gold.Goldscore.External.Vdw.Weighted>
48.3872

> <Gold.Goldscore.Internal.HBond.Weighted>
0.0000

> <Gold.Goldscore.External.HBond.Weighted>
0.0000

> <Gold.Goldscore.Internal.Correction.Weighted>
-5.2394

$$$$
CHEMBL174579|3D_washed_1|sdf|1|dock2
  -GOLD-   5102319433D 1   1.00000     0.00000

 27 29  0  0  0  0  0  0  0  0  1 V2000
   84.0297   52.3436   49.9756 Br  0  0  0  0  0  0  0  0  0  0  0  0
   84.9872   52.3862   48.3457 C   0  0  0  0  0  0  0  0  0  0  0  0
   84.8247   53.4524   47.4767 C   0  0  0  0  0  0  0  0  0  0  0  0
   85.5197   53.4874   46.2883 C   0  0  0  0  0  0  0  0  0  0  0  0
   86.3947   52.4438   45.9532 C   0  0  0  0  0  0  0  0  0  0  0  0
   86.5525   51.3746   46.8339 C   0  0  0  0  0  0  0  0  0  0  0  0
   85.8523   51.3553   48.0268 C   0  0  0  0  0  0  0  0  0  0  0  0
   87.5363   50.3847   46.2592 C   0  0  0  0  0  0  0  0  0  0  0  0
   87.9840   50.9562   44.9071 C   0  0  0  0  0  0  0  0  0  0  0  0
   87.2360   52.2588   44.7569 C   0  0  0  0  0  0  0  0  0  0  0  0
   87.3209   53.1016   43.7150 C   0  0  0  0  0  0  0  0  0  0  0  0
   86.3929   54.2419   43.6110 C   0  0  0  0  0  0  0  0  0  0  0  0
   86.7219   55.5600   43.7247 C   0  0  0  0  0  0  0  0  0  0  0  0
   85.5649   56.2675   43.5640 N   0  0  0  0  0  0  0  0  0  0  0  0
   84.5661   55.3727   43.3582 C   0  0  0  0  0  0  0  0  0  0  0  0
   85.0637   54.1681   43.3811 N   0  0  0  0  0  0  0  0  0  0  0  0
   84.1527   54.2577   47.7315 H   0  0  0  0  0  0  0  0  0  0  0  0
   85.3906   54.3198   45.6123 H   0  0  0  0  0  0  0  0  0  0  0  0
   85.9759   50.5261   48.7081 H   0  0  0  0  0  0  0  0  0  0  0  0
   88.3941   50.2815   46.9246 H   0  0  0  0  0  0  0  0  0  0  0  0
   87.0542   49.4181   46.1156 H   0  0  0  0  0  0  0  0  0  0  0  0
   89.0592   51.1369   44.9112 H   0  0  0  0  0  0  0  0  0  0  0  0
   87.7182   50.2726   44.1008 H   0  0  0  0  0  0  0  0  0  0  0  0
   88.0707   52.9454   42.9531 H   0  0  0  0  0  0  0  0  0  0  0  0
   87.7060   55.9651   43.9066 H   0  0  0  0  0  0  0  0  0  0  0  0
   83.5266   55.6179   43.1961 H   0  0  0  0  0  0  0  0  0  0  0  0
   85.4704   57.2727   43.5936 H   0  0  0  0  0  0  0  0  0  0  0  0
  1  2  1  0  0  0  0
  2  3  1  0  0  0  0
  2  7  2  0  0  0  0
  3  4  2  0  0  0  0
  3 17  1  0  0  0  0
  4  5  1  0  0  0  0
  4 18  1  0  0  0  0
  5  6  2  0  0  0  0
  5 10  1  0  0  0  0
  6  7  1  0  0  0  0
  6  8  1  0  0  0  0
  7 19  1  0  0  0  0
  8  9  1  0  0  0  0
  8 20  1  0  0  0  0
  8 21  1  0  0  0  0
  9 10  1  0  0  0  0
  9 22  1  0  0  0  0
  9 23  1  0  0  0  0
 10 11  2  0  0  0  0
 11 12  1  0  0  0  0
 11 24  1  0  0  0  0
 12 13  2  0  0  0  0
 12 16  1  0  0  0  0
 13 14  1  0  0  0  0
 13 25  1  0  0  0  0
 14 15  1  0  0  0  0
 14 27  1  0  0  0  0
 15 16  2  0  0  0  0
 15 26  1  0  0  0  0
M  END
> <Gold.Version>
5.8.1

> <Gold.Id.Protein>
unknown|old|pdb

> <Gold.Goldscore.Fitness>
47.8361

> <Gold.Goldscore.Internal.Vdw>
-0.6271

> <Gold.Goldscore.Internal.Torsion>
-4.9004

> <Gold.Goldscore.External.Vdw>
34.9995

> <Gold.Goldscore.Internal.HBond>
0.0000

> <Gold.Goldscore.External.HBond>
0.0000

> <Gold.Goldscore.Internal.Correction>
-5.2394

> <Gold.Goldscore.Internal.Vdw.Weighted>
-0.6271

> <Gold.Goldscore.Internal.Torsion.Weighted>
-4.9004

> <Gold.Goldscore.External.Vdw.Weighted>
48.1242

> <Gold.Goldscore.Internal.HBond.Weighted>
0.0000

> <Gold.Goldscore.External.HBond.Weighted>
0.0000

> <Gold.Goldscore.Internal.Correction.Weighted>
-5.2394

$$$$
CHEMBL174579|3D_washed_1|sdf|1|dock4
  -GOLD-   5102319433D 1   1.00000     0.00000

 27 29  0  0  0  0  0  0  0  0  1 V2000
   86.6853   50.3108   44.5592 Br  0  0  0  0  0  0  0  0  0  0  0  0
   86.5443   52.1879   44.7372 C   0  0  0  0  0  0  0  0  0  0  0  0
   85.8045   52.7297   45.7753 C   0  0  0  0  0  0  0  0  0  0  0  0
   85.6987   54.0964   45.9086 C   0  0  0  0  0  0  0  0  0  0  0  0
   86.3396   54.9449   44.9940 C   0  0  0  0  0  0  0  0  0  0  0  0
   87.0824   54.3910   43.9524 C   0  0  0  0  0  0  0  0  0  0  0  0
   87.1847   53.0166   43.8339 C   0  0  0  0  0  0  0  0  0  0  0  0
   87.6711   55.4938   43.1067 C   0  0  0  0  0  0  0  0  0  0  0  0
   87.2121   56.8147   43.7389 C   0  0  0  0  0  0  0  0  0  0  0  0
   86.3730   56.4172   44.9291 C   0  0  0  0  0  0  0  0  0  0  0  0
   85.7625   57.2578   45.7800 C   0  0  0  0  0  0  0  0  0  0  0  0
   84.8199   56.7345   46.7850 C   0  0  0  0  0  0  0  0  0  0  0  0
   83.4894   56.5040   46.5970 C   0  0  0  0  0  0  0  0  0  0  0  0
   83.0042   56.0250   47.7803 N   0  0  0  0  0  0  0  0  0  0  0  0
   84.0405   55.9751   48.6546 C   0  0  0  0  0  0  0  0  0  0  0  0
   85.1209   56.3928   48.0569 N   0  0  0  0  0  0  0  0  0  0  0  0
   85.3105   52.0799   46.4814 H   0  0  0  0  0  0  0  0  0  0  0  0
   85.1207   54.5162   46.7187 H   0  0  0  0  0  0  0  0  0  0  0  0
   87.7609   52.5891   43.0262 H   0  0  0  0  0  0  0  0  0  0  0  0
   88.7598   55.4320   43.1175 H   0  0  0  0  0  0  0  0  0  0  0  0
   87.3011   55.4198   42.0844 H   0  0  0  0  0  0  0  0  0  0  0  0
   88.0745   57.3978   44.0630 H   0  0  0  0  0  0  0  0  0  0  0  0
   86.6141   57.3862   43.0290 H   0  0  0  0  0  0  0  0  0  0  0  0
   85.9631   58.3181   45.7295 H   0  0  0  0  0  0  0  0  0  0  0  0
   82.9290   56.6686   45.6890 H   0  0  0  0  0  0  0  0  0  0  0  0
   83.9819   55.6388   49.6795 H   0  0  0  0  0  0  0  0  0  0  0  0
   82.0489   55.7574   47.9696 H   0  0  0  0  0  0  0  0  0  0  0  0
  1  2  1  0  0  0  0
  2  3  1  0  0  0  0
  2  7  2  0  0  0  0
  3  4  2  0  0  0  0
  3 17  1  0  0  0  0
  4  5  1  0  0  0  0
  4 18  1  0  0  0  0
  5  6  2  0  0  0  0
  5 10  1  0  0  0  0
  6  7  1  0  0  0  0
  6  8  1  0  0  0  0
  7 19  1  0  0  0  0
  8  9  1  0  0  0  0
  8 20  1  0  0  0  0
  8 21  1  0  0  0  0
  9 10  1  0  0  0  0
  9 22  1  0  0  0  0
  9 23  1  0  0  0  0
 10 11  2  0  0  0  0
 11 12  1  0  0  0  0
 11 24  1  0  0  0  0
 12 13  2  0  0  0  0
 12 16  1  0  0  0  0
 13 14  1  0  0  0  0
 13 25  1  0  0  0  0
 14 15  1  0  0  0  0
 14 27  1  0  0  0  0
 15 16  2  0  0  0  0
 15 26  1  0  0  0  0
M  END
> <Gold.Version>
5.8.1

> <Gold.Id.Protein>
unknown|old|pdb

> <Gold.Goldscore.Fitness>
47.2318

> <Gold.Goldscore.Internal.Vdw>
-0.1967

> <Gold.Goldscore.Internal.Torsion>
-5.6734

> <Gold.Goldscore.External.Vdw>
34.8090

> <Gold.Goldscore.Internal.HBond>
0.0000

> <Gold.Goldscore.External.HBond>
0.0000

> <Gold.Goldscore.Internal.Correction>
-5.2394

> <Gold.Goldscore.Internal.Vdw.Weighted>
-0.1967

> <Gold.Goldscore.Internal.Torsion.Weighted>
-5.6734

> <Gold.Goldscore.External.Vdw.Weighted>
47.8624

> <Gold.Goldscore.Internal.HBond.Weighted>
0.0000

> <Gold.Goldscore.External.HBond.Weighted>
0.0000

> <Gold.Goldscore.Internal.Correction.Weighted>
-5.2394

$$$$
CHEMBL174579|3D_washed_1|sdf|1|dock3
  -GOLD-   5102319433D 1   1.00000     0.00000

 27 29  0  0  0  0  0  0  0  0  1 V2000
   85.3441   57.2204   42.7254 Br  0  0  0  0  0  0  0  0  0  0  0  0
   85.4715   55.9440   44.1145 C   0  0  0  0  0  0  0  0  0  0  0  0
   85.9431   54.6706   43.8414 C   0  0  0  0  0  0  0  0  0  0  0  0
   86.0372   53.7376   44.8500 C   0  0  0  0  0  0  0  0  0  0  0  0
   85.6562   54.0730   46.1575 C   0  0  0  0  0  0  0  0  0  0  0  0
   85.1830   55.3571   46.4234 C   0  0  0  0  0  0  0  0  0  0  0  0
   85.0990   56.2859   45.4018 C   0  0  0  0  0  0  0  0  0  0  0  0
   84.8382   55.4776   47.8879 C   0  0  0  0  0  0  0  0  0  0  0  0
   85.1509   54.1141   48.5188 C   0  0  0  0  0  0  0  0  0  0  0  0
   85.6656   53.2588   47.3863 C   0  0  0  0  0  0  0  0  0  0  0  0
   86.0619   51.9794   47.4812 C   0  0  0  0  0  0  0  0  0  0  0  0
   86.3613   51.2074   46.2618 C   0  0  0  0  0  0  0  0  0  0  0  0
   87.5942   50.7906   45.8559 C   0  0  0  0  0  0  0  0  0  0  0  0
   87.4124   50.1153   44.6828 N   0  0  0  0  0  0  0  0  0  0  0  0
   86.0850   50.1360   44.4029 C   0  0  0  0  0  0  0  0  0  0  0  0
   85.4618   50.7821   45.3480 N   0  0  0  0  0  0  0  0  0  0  0  0
   86.2380   54.4091   42.8366 H   0  0  0  0  0  0  0  0  0  0  0  0
   86.4048   52.7452   44.6342 H   0  0  0  0  0  0  0  0  0  0  0  0
   84.7323   57.2806   45.6097 H   0  0  0  0  0  0  0  0  0  0  0  0
   85.4475   56.2537   48.3523 H   0  0  0  0  0  0  0  0  0  0  0  0
   83.7802   55.7105   48.0055 H   0  0  0  0  0  0  0  0  0  0  0  0
   85.9156   54.2208   49.2886 H   0  0  0  0  0  0  0  0  0  0  0  0
   84.2465   53.6767   48.9418 H   0  0  0  0  0  0  0  0  0  0  0  0
   86.1631   51.5154   48.4515 H   0  0  0  0  0  0  0  0  0  0  0  0
   88.5316   50.9615   46.3635 H   0  0  0  0  0  0  0  0  0  0  0  0
   85.6182   49.6856   43.5391 H   0  0  0  0  0  0  0  0  0  0  0  0
   88.1342   49.6807   44.1258 H   0  0  0  0  0  0  0  0  0  0  0  0
  1  2  1  0  0  0  0
  2  3  1  0  0  0  0
  2  7  2  0  0  0  0
  3  4  2  0  0  0  0
  3 17  1  0  0  0  0
  4  5  1  0  0  0  0
  4 18  1  0  0  0  0
  5  6  2  0  0  0  0
  5 10  1  0  0  0  0
  6  7  1  0  0  0  0
  6  8  1  0  0  0  0
  7 19  1  0  0  0  0
  8  9  1  0  0  0  0
  8 20  1  0  0  0  0
  8 21  1  0  0  0  0
  9 10  1  0  0  0  0
  9 22  1  0  0  0  0
  9 23  1  0  0  0  0
 10 11  2  0  0  0  0
 11 12  1  0  0  0  0
 11 24  1  0  0  0  0
 12 13  2  0  0  0  0
 12 16  1  0  0  0  0
 13 14  1  0  0  0  0
 13 25  1  0  0  0  0
 14 15  1  0  0  0  0
 14 27  1  0  0  0  0
 15 16  2  0  0  0  0
 15 26  1  0  0  0  0
M  END
> <Gold.Version>
5.8.1

> <Gold.Id.Protein>
unknown|old|pdb

> <Gold.Goldscore.Fitness>
46.8910

> <Gold.Goldscore.Internal.Vdw>
-0.3373

> <Gold.Goldscore.Internal.Torsion>
-5.0186

> <Gold.Goldscore.External.Vdw>
34.1872

> <Gold.Goldscore.Internal.HBond>
0.0000

> <Gold.Goldscore.External.HBond>
0.0000

> <Gold.Goldscore.Internal.Correction>
-5.2394

> <Gold.Goldscore.Internal.Vdw.Weighted>
-0.3373

> <Gold.Goldscore.Internal.Torsion.Weighted>
-5.0186

> <Gold.Goldscore.External.Vdw.Weighted>
47.0075

> <Gold.Goldscore.Internal.HBond.Weighted>
0.0000

> <Gold.Goldscore.External.HBond.Weighted>
0.0000

> <Gold.Goldscore.Internal.Correction.Weighted>
-5.2394